Version 4
SHEET 1 2988 1232
WIRE -576 -320 -656 -320
WIRE -288 -320 -320 -320
WIRE -176 -320 -208 -320
WIRE -160 -320 -176 -320
WIRE -48 -320 -80 -320
WIRE -656 -304 -656 -320
WIRE -176 -256 -176 -320
WIRE -656 -192 -656 -224
WIRE -576 -192 -656 -192
WIRE 928 -112 656 -112
WIRE 1264 -112 1008 -112
WIRE 2400 -112 2128 -112
WIRE 2736 -112 2480 -112
WIRE 272 -48 192 -48
WIRE 288 -48 272 -48
WIRE 384 -48 368 -48
WIRE 432 -48 384 -48
WIRE 544 -48 512 -48
WIRE 560 -48 544 -48
WIRE 656 -48 656 -112
WIRE 656 -48 640 -48
WIRE 672 -48 656 -48
WIRE 752 -48 736 -48
WIRE 1744 -48 1664 -48
WIRE 1760 -48 1744 -48
WIRE 1856 -48 1840 -48
WIRE 1904 -48 1856 -48
WIRE 2016 -48 1984 -48
WIRE 2032 -48 2016 -48
WIRE 2128 -48 2128 -112
WIRE 2128 -48 2112 -48
WIRE 2144 -48 2128 -48
WIRE 2224 -48 2208 -48
WIRE -480 -16 -512 -16
WIRE -384 -16 -384 -32
WIRE -384 -16 -416 -16
WIRE -384 32 -384 -16
WIRE -624 64 -704 64
WIRE -464 64 -624 64
WIRE 384 80 384 -48
WIRE 432 80 384 80
WIRE 656 80 656 -48
WIRE 672 80 656 80
WIRE 1856 80 1856 -48
WIRE 1904 80 1856 80
WIRE 2128 80 2128 -48
WIRE 2144 80 2128 80
WIRE -432 96 -544 96
WIRE 544 96 544 -48
WIRE 544 96 496 96
WIRE 752 96 752 -48
WIRE 752 96 736 96
WIRE 816 96 752 96
WIRE 960 96 896 96
WIRE 1120 96 960 96
WIRE 2016 96 2016 -48
WIRE 2016 96 1968 96
WIRE 2224 96 2224 -48
WIRE 2224 96 2208 96
WIRE 2288 96 2224 96
WIRE 2432 96 2368 96
WIRE 2592 96 2432 96
WIRE 432 112 400 112
WIRE 672 112 640 112
WIRE 1264 112 1264 -112
WIRE 1264 112 1184 112
WIRE 1344 112 1264 112
WIRE 1904 112 1872 112
WIRE 2144 112 2112 112
WIRE 2736 112 2736 -112
WIRE 2736 112 2656 112
WIRE 2816 112 2736 112
WIRE -144 128 -256 128
WIRE 400 128 400 112
WIRE 640 128 640 112
WIRE 1120 128 1104 128
WIRE 1872 128 1872 112
WIRE 2112 128 2112 112
WIRE 2592 128 2576 128
WIRE -432 160 -448 160
WIRE -448 176 -448 160
WIRE -448 176 -544 176
WIRE -624 192 -704 192
WIRE -464 192 -624 192
WIRE -320 224 -320 192
WIRE 272 224 272 -48
WIRE 576 224 272 224
WIRE 960 224 960 96
WIRE 960 224 640 224
WIRE 1744 224 1744 -48
WIRE 2048 224 1744 224
WIRE 2432 224 2432 96
WIRE 2432 224 2112 224
WIRE 1104 240 1104 128
WIRE 1152 240 1104 240
WIRE 1264 240 1264 112
WIRE 1264 240 1232 240
WIRE 2576 240 2576 128
WIRE 2736 240 2736 112
WIRE 2736 240 2576 240
WIRE 960 256 960 224
WIRE 1104 256 1104 240
WIRE 2432 256 2432 224
WIRE -480 288 -512 288
WIRE -384 288 -384 224
WIRE -384 288 -416 288
WIRE -384 304 -384 288
WIRE 960 368 960 336
WIRE 1104 368 1104 336
WIRE 2432 368 2432 336
WIRE 928 544 656 544
WIRE 1264 544 1008 544
WIRE 272 608 192 608
WIRE 288 608 272 608
WIRE 384 608 368 608
WIRE 432 608 384 608
WIRE 544 608 512 608
WIRE 560 608 544 608
WIRE 656 608 656 544
WIRE 656 608 640 608
WIRE 672 608 656 608
WIRE 752 608 736 608
WIRE 384 736 384 608
WIRE 432 736 384 736
WIRE 656 736 656 608
WIRE 672 736 656 736
WIRE 544 752 544 608
WIRE 544 752 496 752
WIRE 752 752 752 608
WIRE 752 752 736 752
WIRE 816 752 752 752
WIRE 960 752 896 752
WIRE 1120 752 960 752
WIRE 432 768 400 768
WIRE 672 768 640 768
WIRE 1264 768 1264 544
WIRE 1264 768 1184 768
WIRE 1344 768 1264 768
WIRE 400 784 400 768
WIRE 640 784 640 768
WIRE 1120 784 1104 784
WIRE 272 880 272 608
WIRE 576 880 272 880
WIRE 960 880 960 752
WIRE 960 880 640 880
WIRE 1104 896 1104 784
WIRE 1152 896 1104 896
WIRE 1264 896 1264 768
WIRE 1264 896 1232 896
WIRE 960 912 960 880
WIRE 1104 912 1104 896
WIRE 960 1024 960 992
WIRE 1104 1024 1104 992
FLAG -624 -16 0
FLAG -624 272 0
FLAG -576 -320 EletrodoA
IOPIN -576 -320 Out
FLAG -576 -192 EletrodoB
IOPIN -576 -192 Out
FLAG -704 64 EletrodoA
IOPIN -704 64 In
FLAG -704 192 EletrodoB
IOPIN -704 192 In
FLAG -144 128 InAmp
IOPIN -144 128 Out
FLAG -176 -256 0
FLAG -320 -320 V+
IOPIN -320 -320 Out
FLAG -48 -320 V-
IOPIN -48 -320 Out
FLAG -384 304 V-
IOPIN -384 304 Out
FLAG -384 -32 V+
IOPIN -384 -32 Out
FLAG -320 224 0
FLAG -512 -16 0
FLAG -512 288 0
FLAG 400 128 0
FLAG 464 64 V+
IOPIN 464 64 Out
FLAG 464 128 V-
IOPIN 464 128 Out
FLAG 704 64 V+
IOPIN 704 64 Out
FLAG 704 128 V-
IOPIN 704 128 Out
FLAG 640 128 0
FLAG 960 368 0
FLAG 1152 144 V+
IOPIN 1152 144 Out
FLAG 1152 80 V-
IOPIN 1152 80 Out
FLAG 1104 368 0
FLAG 192 -48 InAmp
IOPIN 192 -48 In
FLAG 1344 112 Notch60
IOPIN 1344 112 Out
FLAG 400 784 0
FLAG 464 720 V+
IOPIN 464 720 Out
FLAG 464 784 V-
IOPIN 464 784 Out
FLAG 704 720 V+
IOPIN 704 720 Out
FLAG 704 784 V-
IOPIN 704 784 Out
FLAG 640 784 0
FLAG 960 1024 0
FLAG 1152 800 V+
IOPIN 1152 800 Out
FLAG 1152 736 V-
IOPIN 1152 736 Out
FLAG 1104 1024 0
FLAG 192 608 InAmp
IOPIN 192 608 In
FLAG 1344 768 Notch60_T
IOPIN 1344 768 Out
FLAG 1872 128 0
FLAG 1936 64 V+
IOPIN 1936 64 Out
FLAG 1936 128 V-
IOPIN 1936 128 Out
FLAG 2176 64 V+
IOPIN 2176 64 Out
FLAG 2176 128 V-
IOPIN 2176 128 Out
FLAG 2112 128 0
FLAG 2432 368 0
FLAG 2624 144 V+
IOPIN 2624 144 Out
FLAG 2624 80 V-
IOPIN 2624 80 Out
FLAG 2816 112 Notch120
IOPIN 2816 112 Out
FLAG 1664 -48 Notch60
IOPIN 1664 -48 In
SYMBOL INA823 -368 128 R0
SYMATTR InstName U1
SYMBOL res -640 -32 R0
SYMATTR InstName R3
SYMATTR Value 100k
SYMBOL res -608 288 R180
WINDOW 0 36 76 Left 2
WINDOW 3 36 40 Left 2
SYMATTR InstName R4
SYMATTR Value 100k
SYMBOL voltage -304 -320 R270
WINDOW 123 0 0 Left 0
WINDOW 39 0 0 Left 0
WINDOW 0 39 1 VRight 2
SYMATTR InstName V5
SYMATTR Value 3.3
SYMBOL voltage -176 -320 R270
WINDOW 123 0 0 Left 0
WINDOW 39 0 0 Left 0
WINDOW 0 39 1 VRight 2
SYMATTR InstName V6
SYMATTR Value 3.3
SYMBOL cap -416 -32 R90
WINDOW 0 0 32 VBottom 2
WINDOW 3 32 32 VTop 2
SYMATTR InstName C1
SYMATTR Value 1µ
SYMBOL cap -416 272 R90
WINDOW 0 0 32 VBottom 2
WINDOW 3 32 32 VTop 2
SYMATTR InstName C2
SYMATTR Value 1µ
SYMBOL res -560 80 R0
SYMATTR InstName R1
SYMATTR Value 1.01k
SYMBOL Misc\\signal -656 -320 R0
WINDOW 3 -238 41 Left 2
WINDOW 123 -139 78 Left 2
WINDOW 39 0 0 Left 0
SYMATTR Value SINE(0 800u 160)
SYMATTR Value2 AC 800u
SYMATTR InstName V1
SYMBOL res 528 -64 R90
WINDOW 0 0 56 VBottom 2
WINDOW 3 32 56 VTop 2
SYMATTR InstName R2
SYMATTR Value 10k
SYMBOL res 384 -64 R90
WINDOW 0 0 56 VBottom 2
WINDOW 3 32 56 VTop 2
SYMATTR InstName R5
SYMATTR Value 10k
SYMBOL res 656 -64 R90
WINDOW 0 0 56 VBottom 2
WINDOW 3 32 56 VTop 2
SYMATTR InstName R6
SYMATTR Value 43.2
SYMBOL cap 736 -64 R90
WINDOW 0 0 32 VBottom 2
WINDOW 3 32 32 VTop 2
SYMATTR InstName C3
SYMATTR Value 1µ
SYMBOL res 912 80 R90
WINDOW 0 0 56 VBottom 2
WINDOW 3 32 56 VTop 2
SYMATTR InstName R7
SYMATTR Value 162k
SYMBOL cap 640 208 R90
WINDOW 0 0 32 VBottom 2
WINDOW 3 32 32 VTop 2
SYMATTR InstName C4
SYMATTR Value 1µ
SYMBOL res 944 240 R0
SYMATTR InstName R8
SYMATTR Value 7.87Meg
SYMBOL res 1248 224 R90
WINDOW 0 0 56 VBottom 2
WINDOW 3 32 56 VTop 2
SYMATTR InstName R9
SYMATTR Value 1k
SYMBOL res 1088 240 R0
SYMATTR InstName R10
SYMATTR Value 1k
SYMBOL res 1024 -128 R90
WINDOW 0 0 56 VBottom 2
WINDOW 3 32 56 VTop 2
SYMATTR InstName R11
SYMATTR Value 86.6
SYMBOL res 528 592 R90
WINDOW 0 0 56 VBottom 2
WINDOW 3 32 56 VTop 2
SYMATTR InstName R12
SYMATTR Value 10k
SYMBOL res 384 592 R90
WINDOW 0 0 56 VBottom 2
WINDOW 3 32 56 VTop 2
SYMATTR InstName R13
SYMATTR Value 10k
SYMBOL res 656 592 R90
WINDOW 0 0 56 VBottom 2
WINDOW 3 32 56 VTop 2
SYMATTR InstName R14
SYMATTR Value 43.2
SYMBOL cap 736 592 R90
WINDOW 0 0 32 VBottom 2
WINDOW 3 32 32 VTop 2
SYMATTR InstName C5
SYMATTR Value 1µ
SYMBOL res 912 736 R90
WINDOW 0 0 56 VBottom 2
WINDOW 3 32 56 VTop 2
SYMATTR InstName R15
SYMATTR Value 162k
SYMBOL cap 640 864 R90
WINDOW 0 0 32 VBottom 2
WINDOW 3 32 32 VTop 2
SYMATTR InstName C6
SYMATTR Value 1µ
SYMBOL res 944 896 R0
SYMATTR InstName R16
SYMATTR Value 7.87Meg
SYMBOL res 1248 880 R90
WINDOW 0 0 56 VBottom 2
WINDOW 3 32 56 VTop 2
SYMATTR InstName R17
SYMATTR Value 1k
SYMBOL res 1088 896 R0
SYMATTR InstName R18
SYMATTR Value 1.69k
SYMBOL res 1024 528 R90
WINDOW 0 0 56 VBottom 2
WINDOW 3 32 56 VTop 2
SYMATTR InstName R19
SYMATTR Value 68.1
SYMBOL OpAmps\\AD8510 464 688 R0
SYMATTR InstName U5
SYMBOL OpAmps\\AD8510 704 688 R0
SYMATTR InstName U6
SYMBOL OpAmps\\AD8510 1152 832 M180
SYMATTR InstName U7
SYMBOL OpAmps\\AD8515 464 32 R0
SYMATTR InstName U2
SYMBOL OpAmps\\AD8515 704 32 R0
SYMATTR InstName U3
SYMBOL OpAmps\\AD8515 1152 176 M180
SYMATTR InstName U4
SYMBOL res 2000 -64 R90
WINDOW 0 0 56 VBottom 2
WINDOW 3 32 56 VTop 2
SYMATTR InstName R20
SYMATTR Value 10k
SYMBOL res 1856 -64 R90
WINDOW 0 0 56 VBottom 2
WINDOW 3 32 56 VTop 2
SYMATTR InstName R21
SYMATTR Value 10k
SYMBOL res 2128 -64 R90
WINDOW 0 0 56 VBottom 2
WINDOW 3 32 56 VTop 2
SYMATTR InstName R22
SYMATTR Value 107
SYMBOL cap 2208 -64 R90
WINDOW 0 0 32 VBottom 2
WINDOW 3 32 32 VTop 2
SYMATTR InstName C7
SYMATTR Value 100n
SYMBOL res 2384 80 R90
WINDOW 0 0 56 VBottom 2
WINDOW 3 32 56 VTop 2
SYMATTR InstName R23
SYMATTR Value 1.62Meg
SYMBOL cap 2112 208 R90
WINDOW 0 0 32 VBottom 2
WINDOW 3 32 32 VTop 2
SYMATTR InstName C8
SYMATTR Value 100n
SYMBOL res 2416 240 R0
SYMATTR InstName R24
SYMATTR Value 78.7Meg
SYMBOL res 2496 -128 R90
WINDOW 0 0 56 VBottom 2
WINDOW 3 32 56 VTop 2
SYMATTR InstName R27
SYMATTR Value 107
SYMBOL OpAmps\\AD8515 1936 32 R0
SYMATTR InstName U8
SYMBOL OpAmps\\AD8515 2176 32 R0
SYMATTR InstName U9
SYMBOL OpAmps\\AD8515 2624 176 M180
SYMATTR InstName U10
TEXT -848 -104 Left 2 ;G = 1 + (100k / Rg) p/ G = 100.0099 Rg = 1.01k
TEXT -888 368 Left 2 ;AMPLIFICADOR DE INSTRUMENTAÇÃO
TEXT 72 360 Left 2 ;FILTRO NOTCH  - Aproximação de Butterworth/Bessel
TEXT 72 392 Left 2 ;Projetado para F_center = 60Hz, Bw=1Hz e K = 2V/V (Reprojetar)
TEXT -898 422 Left 2 !.ac dec 100 0.1 10k
TEXT 72 1016 Left 2 ;FILTRO NOTCH  - Aproximação de Butterworth
TEXT 72 1048 Left 2 ;Projetado para F_center = 60Hz, Bw=1Hz e K = 4V/V
TEXT 1544 360 Left 2 ;FILTRO NOTCH  - Aproximação de Butterworth/Bessel
TEXT 1544 392 Left 2 ;Projetado para F_center = 120Hz, Bw=1Hz e K = 1V/V
RECTANGLE Normal 0 384 -896 -144 2
RECTANGLE Normal 1504 416 64 -176 2
RECTANGLE Normal 1504 1072 64 480 2
RECTANGLE Normal 2976 416 1536 -176 2
