Version 4
SHEET 1 6300 2324
WIRE -688 -592 -736 -592
WIRE -560 -592 -608 -592
WIRE -432 -592 -480 -592
WIRE -288 -592 -352 -592
WIRE -288 -528 -288 -592
WIRE -736 -496 -736 -592
WIRE -288 -320 -320 -320
WIRE -176 -320 -208 -320
WIRE -160 -320 -176 -320
WIRE -48 -320 -80 -320
WIRE -656 -304 -656 -320
WIRE -176 -256 -176 -320
WIRE -656 -192 -656 -224
WIRE 2224 -192 1968 -192
WIRE 2560 -192 2304 -192
WIRE 1968 -96 1968 -192
WIRE 2016 -96 1968 -96
WIRE 2128 -96 2080 -96
WIRE 3488 -96 3344 -96
WIRE 3680 -96 3568 -96
WIRE -480 -16 -512 -16
WIRE -384 -16 -384 -32
WIRE -384 -16 -416 -16
WIRE 3568 16 3520 16
WIRE 3680 16 3680 -96
WIRE 3680 16 3632 16
WIRE -384 32 -384 -16
WIRE 1440 32 1392 32
WIRE 1488 32 1440 32
WIRE 1616 32 1568 32
WIRE 1664 32 1616 32
WIRE 1792 32 1744 32
WIRE 1840 32 1792 32
WIRE 1968 32 1968 -96
WIRE 1968 32 1920 32
WIRE 672 48 672 16
WIRE -624 64 -704 64
WIRE -464 64 -624 64
WIRE 416 64 384 64
WIRE 512 64 480 64
WIRE 640 64 512 64
WIRE 2048 64 2048 32
WIRE 752 80 704 80
WIRE 800 80 752 80
WIRE 1968 80 1968 32
WIRE 2016 80 1968 80
WIRE 2432 80 2432 48
WIRE -432 96 -544 96
WIRE 512 96 512 64
WIRE 640 96 592 96
WIRE 2128 96 2128 -96
WIRE 2128 96 2080 96
WIRE 2160 96 2128 96
WIRE 2272 96 2240 96
WIRE 2400 96 2272 96
WIRE 2016 112 1968 112
WIRE 2560 112 2560 -192
WIRE 2560 112 2464 112
WIRE 2624 112 2560 112
WIRE -144 128 -256 128
WIRE 2400 128 2352 128
WIRE 672 144 672 112
WIRE -432 160 -448 160
WIRE 1968 160 1968 112
WIRE 2048 160 2048 128
WIRE -448 176 -448 160
WIRE -448 176 -544 176
WIRE 1696 176 1696 144
WIRE 2432 176 2432 144
WIRE 3600 176 3600 144
WIRE -624 192 -704 192
WIRE -464 192 -624 192
WIRE 1616 192 1616 32
WIRE 1664 192 1616 192
WIRE 3216 192 3168 192
WIRE 3344 192 3344 -96
WIRE 3344 192 3296 192
WIRE 3392 192 3344 192
WIRE 3520 192 3520 16
WIRE 3520 192 3472 192
WIRE 3568 192 3520 192
WIRE 512 208 512 176
WIRE 592 208 592 96
WIRE 752 208 752 80
WIRE 752 208 592 208
WIRE 1792 208 1792 32
WIRE 1792 208 1728 208
WIRE 3680 208 3680 16
WIRE 3680 208 3632 208
WIRE 3728 208 3680 208
WIRE -320 224 -320 192
WIRE 1664 224 1616 224
WIRE 3568 224 3520 224
WIRE 3344 240 3344 192
WIRE 1616 272 1616 224
WIRE 1696 272 1696 240
WIRE 3520 272 3520 224
WIRE 3600 272 3600 240
WIRE -480 288 -512 288
WIRE -384 288 -384 224
WIRE -384 288 -416 288
WIRE 2352 288 2352 128
WIRE 2416 288 2352 288
WIRE 2560 288 2560 112
WIRE 2560 288 2496 288
WIRE -384 304 -384 288
WIRE 1440 336 1440 32
WIRE 1824 336 1440 336
WIRE 2272 336 2272 96
WIRE 2272 336 1888 336
WIRE 2352 336 2352 288
WIRE 3344 352 3344 304
WIRE 2272 432 2272 336
WIRE 2272 560 2272 512
FLAG -624 -16 0
FLAG -624 272 0
FLAG -576 -192 EletrodoB
IOPIN -576 -192 Out
FLAG -704 64 EletrodoA
IOPIN -704 64 In
FLAG -704 192 EletrodoB
IOPIN -704 192 In
FLAG -144 128 InAmp
IOPIN -144 128 Out
FLAG -176 -256 0
FLAG -320 -320 V+
IOPIN -320 -320 Out
FLAG -48 -320 V-
IOPIN -48 -320 Out
FLAG -384 304 V-
IOPIN -384 304 Out
FLAG -384 -32 V+
IOPIN -384 -32 Out
FLAG -320 224 0
FLAG -512 -16 0
FLAG -512 288 0
FLAG -656 -192 0
FLAG 672 144 V+
IOPIN 672 144 Out
FLAG 672 16 V-
IOPIN 672 16 Out
FLAG 512 208 0
FLAG 384 64 InAmp
IOPIN 384 64 In
FLAG 800 80 HP150m
IOPIN 800 80 Out
FLAG -576 -320 EletrodoA
IOPIN -576 -320 Out
FLAG 1616 272 0
FLAG 1696 144 V+
IOPIN 1696 144 Out
FLAG 1696 272 V-
IOPIN 1696 272 Out
FLAG 2048 32 V+
IOPIN 2048 32 Out
FLAG 2048 160 V-
IOPIN 2048 160 Out
FLAG 1968 160 0
FLAG 1392 32 HP150m
IOPIN 1392 32 In
FLAG 2432 176 V+
IOPIN 2432 176 Out
FLAG 2432 48 V-
IOPIN 2432 48 Out
FLAG 2272 560 0
FLAG 2624 112 Notch60
IOPIN 2624 112 Out
FLAG 2352 416 0
FLAG 3600 144 V+
IOPIN 3600 144 Out
FLAG 3600 272 V-
IOPIN 3600 272 Out
FLAG 3344 352 0
FLAG 3168 192 Notch60
IOPIN 3168 192 In
FLAG 3520 272 0
FLAG 3728 208 LP160test
IOPIN 3728 208 Out
FLAG -288 -528 0
FLAG -736 -496 EletrodoA
IOPIN -736 -496 Out
SYMBOL INA823 -368 128 R0
SYMATTR InstName U1
SYMBOL res -640 -32 R0
SYMATTR InstName R3
SYMATTR Value 100k
SYMBOL res -608 288 R180
WINDOW 0 36 76 Left 2
WINDOW 3 36 40 Left 2
SYMATTR InstName R4
SYMATTR Value 100k
SYMBOL voltage -304 -320 R270
WINDOW 123 0 0 Left 0
WINDOW 39 0 0 Left 0
WINDOW 0 39 1 VRight 2
SYMATTR InstName V5
SYMATTR Value 3.3
SYMBOL voltage -176 -320 R270
WINDOW 123 0 0 Left 0
WINDOW 39 0 0 Left 0
WINDOW 0 39 1 VRight 2
SYMATTR InstName V6
SYMATTR Value 3.3
SYMBOL cap -416 -32 R90
WINDOW 0 0 32 VBottom 2
WINDOW 3 32 32 VTop 2
SYMATTR InstName C1
SYMATTR Value 1µ
SYMBOL cap -416 272 R90
WINDOW 0 0 32 VBottom 2
WINDOW 3 32 32 VTop 2
SYMATTR InstName C2
SYMATTR Value 1µ
SYMBOL res -560 80 R0
SYMATTR InstName R1
SYMATTR Value 1.01k
SYMBOL Misc\\signal -656 -320 R0
WINDOW 3 -322 36 Left 2
WINDOW 123 -139 78 Left 2
WINDOW 39 0 0 Left 0
SYMATTR Value SINE(0 800u 10)
SYMATTR Value2 AC 1
SYMATTR InstName V1
SYMBOL OpAmps\\LT1112 672 144 M180
SYMATTR InstName U2
SYMBOL res 496 80 R0
SYMATTR InstName R2
SYMATTR Value 107k
SYMBOL cap 480 48 R90
WINDOW 0 0 32 VBottom 2
WINDOW 3 32 32 VTop 2
SYMATTR InstName C3
SYMATTR Value 10µ
SYMBOL res 1760 16 R90
WINDOW 0 0 56 VBottom 2
WINDOW 3 32 56 VTop 2
SYMATTR InstName R20
SYMATTR Value 10k
SYMBOL res 1584 16 R90
WINDOW 0 0 56 VBottom 2
WINDOW 3 32 56 VTop 2
SYMATTR InstName R21
SYMATTR Value 10k
SYMBOL res 1936 16 R90
WINDOW 0 0 56 VBottom 2
WINDOW 3 32 56 VTop 2
SYMATTR InstName R22
SYMATTR Value 43.2
SYMBOL cap 2080 -112 R90
WINDOW 0 0 32 VBottom 2
WINDOW 3 32 32 VTop 2
SYMATTR InstName C11
SYMATTR Value 1µ
SYMBOL res 2256 80 R90
WINDOW 0 0 56 VBottom 2
WINDOW 3 32 56 VTop 2
SYMATTR InstName R23
SYMATTR Value 162k
SYMBOL cap 1888 320 R90
WINDOW 0 0 32 VBottom 2
WINDOW 3 32 32 VTop 2
SYMATTR InstName C12
SYMATTR Value 1µ
SYMBOL res 2320 -208 R90
WINDOW 0 0 56 VBottom 2
WINDOW 3 32 56 VTop 2
SYMATTR InstName R24
SYMATTR Value 86.6
SYMBOL res 2256 416 R0
SYMATTR InstName R25
SYMATTR Value 7.87Meg
SYMBOL OpAmps\\LT1124 1696 144 R0
SYMATTR InstName U10
SYMBOL OpAmps\\LT1124 2048 32 R0
SYMATTR InstName U11
SYMBOL OpAmps\\LT1124 2432 176 M180
SYMATTR InstName U12
SYMBOL res 2512 272 R90
WINDOW 0 0 56 VBottom 2
WINDOW 3 32 56 VTop 2
SYMATTR InstName R26
SYMATTR Value 1k
SYMBOL res 2336 320 R0
SYMATTR InstName R27
SYMATTR Value 1k
SYMBOL OpAmps\\LT1124 3600 144 R0
SYMATTR InstName U4
SYMBOL cap 3632 0 R90
WINDOW 0 0 32 VBottom 2
WINDOW 3 32 32 VTop 2
SYMATTR InstName C6
SYMATTR Value 100n
SYMBOL res 3488 176 R90
WINDOW 0 0 56 VBottom 2
WINDOW 3 32 56 VTop 2
SYMATTR InstName R11
SYMATTR Value 715
SYMBOL cap 3328 240 R0
SYMATTR InstName C7
SYMATTR Value 1.62µ
SYMBOL res 3312 176 R90
WINDOW 0 0 56 VBottom 2
WINDOW 3 32 56 VTop 2
SYMATTR InstName R12
SYMATTR Value 499
SYMBOL res 3584 -112 R90
WINDOW 0 0 56 VBottom 2
WINDOW 3 32 56 VTop 2
SYMATTR InstName R13
SYMATTR Value 5.23k
SYMBOL Misc\\signal -592 -592 R90
WINDOW 3 -322 36 Left 2
WINDOW 123 -139 78 Left 2
WINDOW 39 0 0 Left 0
SYMATTR Value SINE(0 100u 60)
SYMATTR Value2 AC 1
SYMATTR InstName V2
SYMBOL Misc\\signal -464 -592 R90
WINDOW 3 -322 36 Left 2
WINDOW 123 -139 78 Left 2
WINDOW 39 0 0 Left 0
SYMATTR Value SINE(0 300u 100)
SYMATTR Value2 AC 1
SYMATTR InstName V3
SYMBOL Misc\\signal -336 -592 R90
WINDOW 3 -322 36 Left 2
WINDOW 123 -139 78 Left 2
WINDOW 39 0 0 Left 0
SYMATTR Value SINE(0 300u 500)
SYMATTR Value2 AC 1
SYMATTR InstName V4
TEXT -848 -104 Left 2 ;K = 1 + (100k / Rg) p/ K = 100.0099 Rg = 1.01k
TEXT -888 368 Left 2 ;AMPLIFICADOR DE INSTRUMENTAÇÃO
TEXT -896 424 Left 2 !.ac dec 100 0.001 2k
TEXT 80 328 Left 2 ;High-Pass; 1st order Bessel; 150mHz passband; Optimize: Noise; +Vs: 3.3; -Vs: -3.3; GBW comp
TEXT 80 368 Left 2 ;Analog Filter Wizard
TEXT 80 -120 Left 2 ;Obs: Usado para remover o DC offfeset do sinal (Voltage input offset). Procurar mais sobre
TEXT 1272 488 Left 2 ;Bandstop Filter- 2nd order Bessel  Passband:\nAo: 1.000 V/V, Fc: 60 Hz, BWp: 1 Hz, Rp: 1.000 dB\nStopband:\nBWs: 100 mHz, Asb: -40.00 dB, Gain 2V/V
TEXT 2488 568 Left 2 ;TI Filter Design Tool
TEXT 2864 480 Left 2 ;Lowpass Filter- 2nd order Bessel\nPassband: Ao: 10.60 V/V, Fp: 160 Hz, Rp: 1.000 dB\nStopband: Fs: 1.6 kHz, Asb: -40.00 dB\nMultiple feedback - TI filter design tool
TEXT 1272 -336 Left 2 ;REPROJETAR USANDO ORDEM MAIOR
RECTANGLE Normal 0 384 -896 -144 2
RECTANGLE Normal 1152 384 64 -144 2
RECTANGLE Normal 2768 592 1264 -288 2
RECTANGLE Normal 4192 592 2848 -288 2
