Version 4
SHEET 1 880 680
SYMBOL AutoGenerated\\INA823 160 160 R0
SYMATTR InstName U1
