Version 4
SHEET 1 880 680
WIRE -1440 -352 -1520 -352
WIRE -1520 -336 -1520 -352
WIRE -1520 -224 -1520 -256
WIRE -1440 -224 -1520 -224
WIRE -480 -16 -512 -16
WIRE -384 -16 -384 -32
WIRE -384 -16 -416 -16
WIRE -1488 32 -1488 0
WIRE -384 32 -384 -16
WIRE -624 64 -704 64
WIRE -464 64 -624 64
WIRE -432 96 -544 96
WIRE -144 128 -256 128
WIRE -1488 144 -1488 112
WIRE -1488 144 -1552 144
WIRE -1488 160 -1488 144
WIRE -432 160 -448 160
WIRE -448 176 -448 160
WIRE -448 176 -544 176
WIRE -624 192 -704 192
WIRE -464 192 -624 192
WIRE -320 224 -320 192
WIRE -1488 272 -1488 240
WIRE -480 288 -512 288
WIRE -384 288 -384 224
WIRE -384 288 -416 288
WIRE -384 304 -384 288
FLAG -624 -16 0
FLAG -624 272 0
FLAG -1440 -352 EletrodoA
IOPIN -1440 -352 In
FLAG -1440 -224 EletrodoB
IOPIN -1440 -224 In
FLAG -704 64 EletrodoA
IOPIN -704 64 In
FLAG -704 192 EletrodoB
IOPIN -704 192 In
FLAG -144 128 InAmp
IOPIN -144 128 Out
FLAG -1552 144 0
FLAG -1488 0 V+
IOPIN -1488 0 Out
FLAG -1488 272 V-
IOPIN -1488 272 Out
FLAG -384 304 V-
IOPIN -384 304 Out
FLAG -384 -32 V+
IOPIN -384 -32 Out
FLAG -320 224 0
FLAG -512 -16 0
FLAG -512 288 0
SYMBOL INA823 -368 128 R0
SYMATTR InstName U1
SYMBOL res -640 -32 R0
SYMATTR InstName R3
SYMATTR Value 100k
SYMBOL res -608 288 R180
WINDOW 0 36 76 Left 2
WINDOW 3 36 40 Left 2
SYMATTR InstName R4
SYMATTR Value 100k
SYMBOL voltage -1488 16 R0
WINDOW 123 0 0 Left 0
WINDOW 39 0 0 Left 0
SYMATTR InstName V5
SYMATTR Value 3.3
SYMBOL voltage -1488 144 R0
WINDOW 123 0 0 Left 0
WINDOW 39 0 0 Left 0
SYMATTR InstName V6
SYMATTR Value 3.3
SYMBOL cap -416 -32 R90
WINDOW 0 0 32 VBottom 2
WINDOW 3 32 32 VTop 2
SYMATTR InstName C1
SYMATTR Value 1µ
SYMBOL cap -416 272 R90
WINDOW 0 0 32 VBottom 2
WINDOW 3 32 32 VTop 2
SYMATTR InstName C2
SYMATTR Value 1µ
SYMBOL res -560 80 R0
SYMATTR InstName R1
SYMATTR Value 1.01k
SYMBOL Misc\\signal -1520 -352 R0
WINDOW 3 -238 41 Left 2
WINDOW 123 -139 78 Left 2
WINDOW 39 0 0 Left 0
SYMATTR InstName V1
SYMATTR Value SINE(0 800u 160)
SYMATTR Value2 AC 800u
TEXT -848 -104 Left 2 ;G = 1 + (100k / Rg) p/ G = 100 Rg = 1.01k
TEXT -888 368 Left 2 ;AMPLIFICADOR DE INSTRUMENTAÇÃO
TEXT -1760 392 Left 2 !.tran 0 0.00626 0.0 0.00001
RECTANGLE Normal 0 384 -896 -144 2
