Version 4.1
SHEET 1 6804 2324
WIRE -832 -976 -832 -1008
WIRE -736 -976 -832 -976
WIRE -384 -976 -480 -976
WIRE -128 -976 -256 -976
WIRE -32 -976 -128 -976
WIRE 320 -976 320 -1008
WIRE 320 -976 224 -976
WIRE 432 -976 320 -976
WIRE 432 -944 432 -976
WIRE -256 -880 -256 -976
WIRE -832 -864 -832 -976
WIRE -384 -864 -384 -976
WIRE -128 -864 -128 -976
WIRE 320 -864 320 -976
WIRE 432 -832 432 -864
WIRE 480 -832 432 -832
WIRE 432 -800 432 -832
WIRE -832 -688 -832 -800
WIRE -608 -688 -608 -880
WIRE -608 -688 -832 -688
WIRE -384 -688 -384 -800
WIRE -384 -688 -608 -688
WIRE -256 -688 -256 -800
WIRE -256 -688 -384 -688
WIRE -128 -688 -128 -800
WIRE 96 -688 96 -880
WIRE 96 -688 -128 -688
WIRE 320 -688 320 -800
WIRE 320 -688 96 -688
WIRE 432 -688 432 -720
WIRE 432 -688 320 -688
WIRE -832 -656 -832 -688
WIRE 320 -656 320 -688
FLAG 320 -656 0
FLAG -832 -1008 0
FLAG -832 -656 V-
IOPIN -832 -656 Out
FLAG 320 -1008 V+
IOPIN 320 -1008 Out
FLAG 480 -832 V_2+
IOPIN 480 -832 Out
SYMBOL PowerProducts\\LT1117-3.3 96 -976 R0
SYMATTR InstName U3
SYMBOL polcap 304 -864 R0
SYMATTR InstName C9
SYMATTR Value 100µ
SYMBOL polcap -144 -864 R0
SYMATTR InstName C15
SYMATTR Value 10µ
SYMBOL voltage -256 -896 R0
SYMATTR InstName V2
SYMATTR Value 9
SYMBOL PowerProducts\\LT1117-3.3 -608 -976 M0
SYMATTR InstName U8
SYMBOL polcap -816 -864 M0
SYMATTR InstName C18
SYMATTR Value 100µ
SYMBOL polcap -368 -864 M0
SYMATTR InstName C19
SYMATTR Value 10µ
SYMBOL res 416 -960 R0
SYMATTR InstName R7
SYMATTR Value 10k
SYMBOL res 416 -816 R0
SYMATTR InstName R16
SYMATTR Value 10k
TEXT -952 -1304 Left 2 !.tran 0 0.15 0.1
TEXT -928 -552 Left 2 ;Fonte simétrica +-3.3V usando ground virtual\nAlimentado por bateria de 9V
TEXT -912 -1192 Left 7 ;FONTE
TEXT 592 -832 Left 2 ;precisaria de um buffer aqui para n interagir com o resitor da entrada do offset
RECTANGLE Normal 816 -496 -944 -1280 2
